* JoSIM file generated with Die2Sim, Mon Aug 23 13:38:17 2021

* Jude de Villiers, Stellenbosch University


* Author: L. Schindler
* Version: 1.5.1
* Last modification date: 18 June 2020
* Last modification by: L. Schindler

* Copyright (c) 2018-2020 Lieze Schindler, Stellenbosch University

* Permission is hereby granted, free of charge, to any person obtaining a copy
* of this cell library and associated documentation files (the "Library"), to deal
* in the Library without restriction, including without limitation the rights
* to use, copy, modify, merge, publish, distribute, sublicense, and/or sell
* copies of the Library, and to permit persons to whom the Library is
* furnished to do so, subject to the following conditions:

* The above copyright notice and this permission notice shall be included in all
* copies or substantial portions of the Library.

* THE LIBRARY IS PROVIDED "AS IS", WITHOUT WARRANTY OF ANY KIND, EXPRESS OR
* IMPLIED, INCLUDING BUT NOT LIMITED TO THE WARRANTIES OF MERCHANTABILITY,
* FITNESS FOR A PARTICULAR PURPOSE AND NONINFRINGEMENT. IN NO EVENT SHALL THE
* AUTHORS OR COPYRIGHT HOLDERS BE LIABLE FOR ANY CLAIM, DAMAGES OR OTHER
* LIABILITY, WHETHER IN AN ACTION OF CONTRACT, TORT OR OTHERWISE, ARISING FROM,
* OUT OF OR IN CONNECTION WITH THE LIBRARY OR THE USE OR OTHER DEALINGS IN THE
* LIBRARY.

*For questions about the library, contact Lieze Schindler, 17528283@sun.ac.za

*$Ports 			  a q
.subckt LSMITLL_JTLT a q
.model jjmit jj(rtype=1, vg=2.8mV, cap=0.07pF, r0=160, rn=16, icrit=0.1mA)
.param Phi0=2.067833848E-15
.param B0=1
.param Ic0=0.0001
.param IcRs=100u*6.859904418
.param B0Rs=IcRs/Ic0*B0
.param Rsheet=2 
.param Lsheet=1.13e-12 
.param LP=0.2p
.param ICreceive=1.6
.param ICtrans=2.5
.param Lptl=2p
.param LB=2p
.param BiasCoef=0.7
.param RD=1.36
.param B1=ICreceive
.param B2=ICtrans/1.25
.param B3=ICtrans
.param IB1=B1*Ic0*BiasCoef
.param IB2=(B2+B3)*Ic0*BiasCoef
.param L1=Lptl
.param L2=Phi0/(2*B1*Ic0)
.param L3=(Phi0/(2*B2*Ic0))/2
.param L4=L3
.param L5=Lptl
.param LP1=LP
.param LP2=LP
.param LP3=LP
.param LB1=LB
.param LB2=LB
.param RB1=B0Rs/B1   
.param RB2=B0Rs/B2
.param RB3=B0Rs/B3
.param LRB1=(RB1/Rsheet)*Lsheet+LP
.param LRB2=(RB2/Rsheet)*Lsheet+LP
.param LRB3=(RB3/Rsheet)*Lsheet+LP
B1         6          7          jjmit area=B1
B2         9          10         jjmit area=B2
B3         12         13         jjmit area=B3
IB1         0          18        pwl(0      0 5p IB1)
IB2         0          19        pwl(0      0 5p IB2)
L1         a          6          L1        
L2         6          9          L2     
L3         9          16         L3       
L4         16         12         L4        
L5         12         17         L5        
LB1        6          18         LB1        
LB2        16         19         LB2        
LP1        0          7          LP1      
LP2        0          10         LP2      
LP3        0          13         LP3
LRB1       0          8          LRB1     
LRB2       0          11         LRB2     
LRB3       0          14         LRB3    
RB1        8          6          RB1     
RB2        11         9          RB2    
RB3        14         12         RB3     
RD         17         q          RD              
.ends
* Author: L. Schindler
* Version: 1.5.1
* Last modification date: 18 June 2020
* Last modification by: L. Schindler

* Copyright (c) 2018-2020 Lieze Schindler, Stellenbosch University

* Permission is hereby granted, free of charge, to any person obtaining a copy
* of this cell library and associated documentation files (the "Library"), to deal
* in the Library without restriction, including without limitation the rights
* to use, copy, modify, merge, publish, distribute, sublicense, and/or sell
* copies of the Library, and to permit persons to whom the Library is
* furnished to do so, subject to the following conditions:

* The above copyright notice and this permission notice shall be included in all
* copies or substantial portions of the Library.

* THE LIBRARY IS PROVIDED "AS IS", WITHOUT WARRANTY OF ANY KIND, EXPRESS OR
* IMPLIED, INCLUDING BUT NOT LIMITED TO THE WARRANTIES OF MERCHANTABILITY,
* FITNESS FOR A PARTICULAR PURPOSE AND NONINFRINGEMENT. IN NO EVENT SHALL THE
* AUTHORS OR COPYRIGHT HOLDERS BE LIABLE FOR ANY CLAIM, DAMAGES OR OTHER
* LIABILITY, WHETHER IN AN ACTION OF CONTRACT, TORT OR OTHERWISE, ARISING FROM,
* OUT OF OR IN CONNECTION WITH THE LIBRARY OR THE USE OR OTHER DEALINGS IN THE
* LIBRARY.

*For questions about the library, contact Lieze Schindler, 17528283@sun.ac.za

* Ports 			a q
.subckt LSmitll_DCSFQ a q
.model jjmit jj(rtype=1, vg=2.8mV, cap=0.07pF, r0=160, rn=16, icrit=0.1mA)
B0 3 4 jjmit area=2.25
B1 5 10 jjmit area=2.25
B2 6 12 jjmit area=2.5
I0 0 7 pwl(0 0 5p 275u)
I1 0 8 pwl(0 0 5p 175u)
L0 7 4 0.2p
L1 8 6 0.2p
L2 a 9 1p
L3 9 3 0.6p
L4 4 5 1.1p
L5 5 6 4.5p
L6 6 q 2p
L7 9 0 3.9p
L8 14 4 1p
L9 10 0 0.2p
L10 11 0 1p
L11 12 0 0.2p
L12 13 0 1p
R0 5 11 3.048846408
R1 6 13 2.743961767
R2 3 14 3.048846408
.ends
* Author: L. Schindler
* Version: 1.5.1
* Last modification date: 18 June 2020
* Last modification by: L. Schindler

* Copyright (c) 2018-2020 Lieze Schindler, Stellenbosch University

* Permission is hereby granted, free of charge, to any person obtaining a copy
* of this cell library and associated documentation files (the "Library"), to deal
* in the Library without restriction, including without limitation the rights
* to use, copy, modify, merge, publish, distribute, sublicense, and/or sell
* copies of the Library, and to permit persons to whom the Library is
* furnished to do so, subject to the following conditions:

* The above copyright notice and this permission notice shall be included in all
* copies or substantial portions of the Library.

* THE LIBRARY IS PROVIDED "AS IS", WITHOUT WARRANTY OF ANY KIND, EXPRESS OR
* IMPLIED, INCLUDING BUT NOT LIMITED TO THE WARRANTIES OF MERCHANTABILITY,
* FITNESS FOR A PARTICULAR PURPOSE AND NONINFRINGEMENT. IN NO EVENT SHALL THE
* AUTHORS OR COPYRIGHT HOLDERS BE LIABLE FOR ANY CLAIM, DAMAGES OR OTHER
* LIABILITY, WHETHER IN AN ACTION OF CONTRACT, TORT OR OTHERWISE, ARISING FROM,
* OUT OF OR IN CONNECTION WITH THE LIBRARY OR THE USE OR OTHER DEALINGS IN THE
* LIBRARY.

*For questions about the library, contact Lieze Schindler, 17528283@sun.ac.za

*$Ports 			  a b q
.subckt LSmitll_MERGET a b q
.model jjmit jj(rtype=1, vg=2.8mV, cap=0.07pF, r0=160, rn=16, icrit=0.1mA)
.param B0=1
.param Ic0=0.0001
.param IcRs=100u*6.859904418
.param B0Rs=IcRs/Ic0*B0
.param Rsheet=2 
.param Lsheet=1.13e-12 
.param B01rx1=0.88429 
.param B01tx1=0.842106 
.param B1=1.45438 
.param B2=0.960422 
.param B5=0.805138 
.param IB01rx1=0.000106334 
.param IB01tx1=5.04979e-5 
.param IB1=0.000186124 
.param L01rx1=2e-012 
.param L02rx1=1.27924e-012 
.param L02tx1=4.81637e-012 
.param L1=1.75737e-012 
.param L2=2e-012 
.param L6=2.22418e-012 
.param L7=8.49377e-012 
.param LRB01rx1=(RB01rx1/Rsheet)*Lsheet
.param LRB01rx2=(RB01rx2/Rsheet)*Lsheet
.param LRB01tx1=(RB01tx1/Rsheet)*Lsheet
.param LRB1=(RB1/Rsheet)*Lsheet
.param LRB2=(RB2/Rsheet)*Lsheet
.param LRB3=(RB3/Rsheet)*Lsheet
.param LRB4=(RB4/Rsheet)*Lsheet
.param LRB5=(RB5/Rsheet)*Lsheet
.param RB01rx1=B0Rs/B01rx1
.param RB01rx2=B0Rs/B01rx1
.param RB01tx1=B0Rs/B01tx1
.param RB1=B0Rs/B1
.param RB2=B0Rs/B2
.param RB3=B0Rs/B1
.param RB4=B0Rs/B2
.param RB5=B0Rs/B5
B01rx1 6 18  jjmit area=B01rx1
B01rx2 13 32  jjmit area=B01rx1
B01tx1 10 28  jjmit area=B01tx1
B1 7 20  jjmit area=B1
B2 4 5  jjmit area=B2
B3 14 34  jjmit area=B1
B4 11 12  jjmit area=B2
B5 9 26  jjmit area=B5
IB01rx1 0 15 pwl(0 0 5p IB01rx1)
IB01rx2 0 24 pwl(0 0 5p IB01rx1)
IB01tx1 0 23 pwl(0 0 5p IB01tx1)
IB1 0 22 pwl(0 0 5p IB1)
L01rx1 a 6 L01rx1
L01rx2 b 13 L01rx1
L02rx1 6 16 L02rx1
L02rx2 13 30 L02rx1
L02tx1 10 25 L02tx1
L1 16 7 L1
L2 5 8 L2
L3 30 14 L1
L12 23 10 0.2p
L16 24 30 0.2p
L1b 7 4 1p
L25 28 0 0.05p
L29 34 0 0.2p
L3b 14 11 1p
L4 12 8 L2
L6 8 9 L6
L7 9 10 L7
LP01rx1 18 0 0.34p
LP01rx2 32 0 0.34p
LP1 20 0 0.2p
LP5 26 0 0.2p
LPR01rx1 15 16 0.2p
LPR1 22 8 0.2p
LRB01rx1 19 0 LRB01rx1
LRB01rx2 33 0 LRB01rx2
LRB01tx1 29 0 LRB01tx1
LRB1 21 0 LRB1
LRB2 17 5 LRB2
LRB3 35 0 LRB3
LRB4 31 12 LRB4
LRB5 27 0 LRB5
R3 25 q 1.36
RB01rx2 13 33 RB01rx2
RB01rx1 6 19 RB01rx1
RB01tx1 10 29 RB01tx1
RB1 7 21 RB1
RB2 4 17 RB2
RB3 14 35 RB3
RB4 11 31 RB4
RB5 9 27 RB5
.ends
* Author: L. Schindler
* Version: 1.5.1
* Last modification date: 18 June 2020
* Last modification by: L. Schindler

* Copyright (c) 2018-2020 Lieze Schindler, Stellenbosch University

* Permission is hereby granted, free of charge, to any person obtaining a copy
* of this cell library and associated documentation files (the "Library"), to deal
* in the Library without restriction, including without limitation the rights
* to use, copy, modify, merge, publish, distribute, sublicense, and/or sell
* copies of the Library, and to permit persons to whom the Library is
* furnished to do so, subject to the following conditions:

* The above copyright notice and this permission notice shall be included in all
* copies or substantial portions of the Library.

* THE LIBRARY IS PROVIDED "AS IS", WITHOUT WARRANTY OF ANY KIND, EXPRESS OR
* IMPLIED, INCLUDING BUT NOT LIMITED TO THE WARRANTIES OF MERCHANTABILITY,
* FITNESS FOR A PARTICULAR PURPOSE AND NONINFRINGEMENT. IN NO EVENT SHALL THE
* AUTHORS OR COPYRIGHT HOLDERS BE LIABLE FOR ANY CLAIM, DAMAGES OR OTHER
* LIABILITY, WHETHER IN AN ACTION OF CONTRACT, TORT OR OTHERWISE, ARISING FROM,
* OUT OF OR IN CONNECTION WITH THE LIBRARY OR THE USE OR OTHER DEALINGS IN THE
* LIBRARY.

*For questions about the library, contact Lieze Schindler, 17528283@sun.ac.za

*$Ports  a q0 q1
.subckt LSMITLL_CLKSPLTT a q0 q1
.model jjmit jj(rtype=1, vg=2.8mV, cap=0.07pF, r0=160, rn=16, icrit=0.1mA)
.param Phi0=2.067833848E-15
.param B0=1
.param Ic0=0.0001
.param IcRs=100u*6.859904418
.param B0Rs=IcRs/Ic0*B0
.param Rsheet=2 
.param Lsheet=1.13e-12 
.param LP=0.2p
.param IC=1.9
.param ICreceive=1.6
.param ICtrans=2.5
.param Lptl=2p
.param LB=2p
.param BiasCoef=0.83
.param RD=1.36
.param B1=ICreceive
.param B2=IC
.param B3=ICtrans
.param B4=ICtrans
.param IB1=BiasCoef*(B1*Ic0+B2*Ic0)
.param IB2=BiasCoef*(B3*Ic0)
.param IB3=BiasCoef*(B4*Ic0)
.param L1=Lptl
.param L2=(Phi0/(2*B1*Ic0))*(B2/(B1+B2))
.param L3=(Phi0/(2*B1*Ic0))*(B1/(B1+B2))
.param L4=(Phi0/(2*B2*Ic0))/2
.param L5=(Phi0/(2*B2*Ic0))/2
.param L6=Lptl
.param L7=(Phi0/(2*B2*Ic0))/2
.param L8=Lptl
.param RB1=B0Rs/B1
.param RB2=B0Rs/B2
.param RB3=B0Rs/B3
.param RB4=B0Rs/B4
.param LRB1=(RB1/Rsheet)*Lsheet
.param LRB2=(RB2/Rsheet)*Lsheet
.param LRB3=(RB3/Rsheet)*Lsheet
.param LRB4=(RB4/Rsheet)*Lsheet
IB1 0 4 pwl(0 0 5p IB1)
IB2 0 8 pwl(0 0 5p IB2)
IB3 0 11 pwl(0 0 5p IB3)
B1 2 3 jjmit area=B1
B2 5 6 jjmit area=B2
B3 8 9 jjmit area=B3
B4 11 12 jjmit area=B4
L1 a 2 L1
L2 2 4 L2
L3 4 5 L3
L4 5 7 L4
L5 7 8 L5
L6 8 10 L6
L7 7 11 L7
L8 11 13 L8
LP1 3 0 0.2p
LP2 6 0 0.2p
LP3 9 0 0.2p
LP4 12 0 0.2p
RB1 2 102 RB1
LRB1 102 0 LRB1
RB2 5 105 RB2
LRB2 105 0 LRB2
RB3 8 108 RB3
LRB3 108 0 LRB3
RB4 11 111 RB4
LRB4 111 0 LRB4
RD1 13 q0 RD
RD2 10 q1 RD
.ends
* Author: L. Schindler
* Version: 1.5.1
* Last modification date: 18 June 2020
* Last modification by: L. Schindler

* Copyright (c) 2018-2020 Lieze Schindler, Stellenbosch University

* Permission is hereby granted, free of charge, to any person obtaining a copy
* of this cell library and associated documentation files (the "Library"), to deal
* in the Library without restriction, including without limitation the rights
* to use, copy, modify, merge, publish, distribute, sublicense, and/or sell
* copies of the Library, and to permit persons to whom the Library is
* furnished to do so, subject to the following conditions:

* The above copyright notice and this permission notice shall be included in all
* copies or substantial portions of the Library.

* THE LIBRARY IS PROVIDED "AS IS", WITHOUT WARRANTY OF ANY KIND, EXPRESS OR
* IMPLIED, INCLUDING BUT NOT LIMITED TO THE WARRANTIES OF MERCHANTABILITY,
* FITNESS FOR A PARTICULAR PURPOSE AND NONINFRINGEMENT. IN NO EVENT SHALL THE
* AUTHORS OR COPYRIGHT HOLDERS BE LIABLE FOR ANY CLAIM, DAMAGES OR OTHER
* LIABILITY, WHETHER IN AN ACTION OF CONTRACT, TORT OR OTHERWISE, ARISING FROM,
* OUT OF OR IN CONNECTION WITH THE LIBRARY OR THE USE OR OTHER DEALINGS IN THE
* LIBRARY.

*For questions about the library, contact Lieze Schindler, 17528283@sun.ac.za

*$Ports 			  a q0 q1
.subckt LSMITLL_SPLITT a q0 q1
.model jjmit jj(rtype=1, vg=2.8mV, cap=0.07pF, r0=160, rn=16, icrit=0.1mA)
.param Phi0=2.067833848E-15
.param B0=1
.param Ic0=0.0001
.param IcRs=100u*6.859904418
.param B0Rs=IcRs/Ic0*B0
.param Rsheet=2 
.param Lsheet=1.13e-12 
.param LP=0.2p
.param IC=1.9
.param ICreceive=1.6
.param ICtrans=2.5
.param Lptl=2p
.param BiasCoef=0.735
.param RD=1.36
.param B1=ICreceive
.param B2=IC
.param B3=ICtrans
.param B4=ICtrans
.param IB1=BiasCoef*(B1*Ic0+B2*Ic0)
.param IB2=BiasCoef*(B3*Ic0)
.param IB3=BiasCoef*(B4*Ic0)
.param L1=Lptl
.param L2=(Phi0/(2*B1*Ic0))/2
.param L3=(Phi0/(2*B1*Ic0))/2
.param L4=(Phi0/(2*B2*Ic0))/2
.param L5=(Phi0/(2*B2*Ic0))/2
.param L6=Lptl
.param L7=(Phi0/(2*B2*Ic0))/2
.param L8=Lptl
.param RB1=B0Rs/B1
.param RB2=B0Rs/B2
.param RB3=B0Rs/B3
.param RB4=B0Rs/B4
.param LRB1=(RB1/Rsheet)*Lsheet
.param LRB2=(RB2/Rsheet)*Lsheet
.param LRB3=(RB3/Rsheet)*Lsheet
.param LRB4=(RB4/Rsheet)*Lsheet
IB1 0 4 pwl(0 0 5p IB1)
IB2 0 8 pwl(0 0 5p IB2)
IB3 0 11 pwl(0 0 5p IB3)
B1 2 3 jjmit area=B1
B2 5 6 jjmit area=B2
B3 8 9 jjmit area=B3
B4 11 12 jjmit area=B4
L1 a 2 L1
L2 2 4 L2
L3 4 5 L3
L4 5 7 L4
L5 7 8 L5
L6 8 10 L6
L7 7 11 L7
L8 11 13 L8
LP1 3 0 0.2p
LP2 6 0 0.2p
LP3 9 0 0.2p
LP4 12 0 0.2p
RB1 2 102 RB1
LRB1 102 0 LRB1
RB2 5 105 RB2
LRB2 105 0 LRB2
RB3 8 108 RB3
LRB3 108 0 LRB3
RB4 11 111 RB4
LRB4 111 0 LRB4
RD1 13 q0 RD
RD2 10 q1 RD
.ends
* Author: L. Schindler
* Version: 1.5.1
* Last modification date: 18 June 2020
* Last modification by: L. Schindler

* Copyright (c) 2018-2020 Lieze Schindler, Stellenbosch University

* Permission is hereby granted, free of charge, to any person obtaining a copy
* of this cell library and associated documentation files (the "Library"), to deal
* in the Library without restriction, including without limitation the rights
* to use, copy, modify, merge, publish, distribute, sublicense, and/or sell
* copies of the Library, and to permit persons to whom the Library is
* furnished to do so, subject to the following conditions:

* The above copyright notice and this permission notice shall be included in all
* copies or substantial portions of the Library.

* THE LIBRARY IS PROVIDED "AS IS", WITHOUT WARRANTY OF ANY KIND, EXPRESS OR
* IMPLIED, INCLUDING BUT NOT LIMITED TO THE WARRANTIES OF MERCHANTABILITY,
* FITNESS FOR A PARTICULAR PURPOSE AND NONINFRINGEMENT. IN NO EVENT SHALL THE
* AUTHORS OR COPYRIGHT HOLDERS BE LIABLE FOR ANY CLAIM, DAMAGES OR OTHER
* LIABILITY, WHETHER IN AN ACTION OF CONTRACT, TORT OR OTHERWISE, ARISING FROM,
* OUT OF OR IN CONNECTION WITH THE LIBRARY OR THE USE OR OTHER DEALINGS IN THE
* LIBRARY.

*For questions about the library, contact Lieze Schindler, 17528283@sun.ac.za

*$Ports 			  a q0 q1
.subckt LSMITLL_CLKSPLT a q0 q1
.model jjmit jj(rtype=1, vg=2.8mV, cap=0.07pF, r0=160, rn=16, icrit=0.1mA)
.param B0=1
.param Ic0=0.0001
.param IcRs=100u*6.859904418
.param B0Rs=IcRs/Ic0*B0
.param Rsheet=2 
.param Lsheet=1.13e-12 
.param B01rx1=1.01
.param B01tx1=1.70 
.param B1=1.70 
.param B2=1.21
.param IB01rx1=0.000135
.param IB01tx1=7.6e-05 
.param IB1=0.000360
.param L01rx1=2.6757035519114777e-13 
.param L02tx1=2.2253212527851025e-12 
.param L1=1.5258529970572481e-12 
.param L2=2.9153847294043574e-12 
.param L3=4.813688043861165e-13 
.param L4=1.2716425006912427e-12 
.param L5=1.2572241510058017e-12 
.param LRB01rx1=(RB01rx1/Rsheet)*Lsheet
.param LRB01tx1=(RB01tx1/Rsheet)*Lsheet
.param LRB1=(RB1/Rsheet)*Lsheet
.param LRB2=(RB2/Rsheet)*Lsheet
.param RB01rx1=B0Rs/B01rx1
.param RB01tx1=B0Rs/B01tx1
.param RB1=B0Rs/B1
.param RB2=B0Rs/B2
B01rx1 6 20 jjmit area=B01rx1
B01tx1 5 16 jjmit area=B01tx1
B01tx2 9 28 jjmit area=B01tx1
B1 7 22  jjmit area=B1
B2 4 14  jjmit area=B2
B3 8 25  jjmit area=B2
IB01rx1 0 12 pwl(0 0 5p IB01rx1)
IB01tx1 0 10 pwl(0 0 5p IB01tx1)
IB01tx2 0 27 pwl(0 0 5p IB01tx1)
IB1 0 13 pwl(0 0 5p IB1)
L01rx1 a 6 L01rx1
L02tx1 5 11 L02tx1
L02tx2 9 24 L02tx1
L1 6 7 L1
L2 7 18 L2
L3 18 19 L3
L4 4 19 L4
L5 4 5 L5
L6 19 8 L4
L7 8 9 L5
LP01rx1 20 0 0.34p
LP01tx1 16 0 0.05p
LP01tx2 28 0 0.05p
LP1 22 0 0.2p
LP2 14 0 0.2p
LP3 25 0 0.2p
LPR01rx1 12 6 0.2p
LPR01tx1 10 5 0.2p
LPR01tx2 9 27 0.2p
LPRIB1 13 18 0.2p
LRB01rx1 21 0 LRB01rx1
LRB01tx1 17 0 LRB01tx1
LRB01tx2 29 0 LRB01tx1
LRB1 23 0 LRB1
LRB2 15 0 LRB2
LRB3 26 0 LRB2
RB01rx1 6 21 RB01rx1
RB01tx1 5 17 RB01tx1
RB01tx2 9 29 RB01tx1
RB1 7 23 RB1
RB2 4 15 RB2
RB3 8 26 RB2
RINStx1 11 q0 1.36
RINStx2 24 q1 1.36
.ends
* Author: L. Schindler
* Version: 1.5.1
* Last modification date: 18 June 2020
* Last modification by: L. Schindler

* Copyright (c) 2018-2020 Lieze Schindler, Stellenbosch University

* Permission is hereby granted, free of charge, to any person obtaining a copy
* of this cell library and associated documentation files (the "Library"), to deal
* in the Library without restriction, including without limitation the rights
* to use, copy, modify, merge, publish, distribute, sublicense, and/or sell
* copies of the Library, and to permit persons to whom the Library is
* furnished to do so, subject to the following conditions:

* The above copyright notice and this permission notice shall be included in all
* copies or substantial portions of the Library.

* THE LIBRARY IS PROVIDED "AS IS", WITHOUT WARRANTY OF ANY KIND, EXPRESS OR
* IMPLIED, INCLUDING BUT NOT LIMITED TO THE WARRANTIES OF MERCHANTABILITY,
* FITNESS FOR A PARTICULAR PURPOSE AND NONINFRINGEMENT. IN NO EVENT SHALL THE
* AUTHORS OR COPYRIGHT HOLDERS BE LIABLE FOR ANY CLAIM, DAMAGES OR OTHER
* LIABILITY, WHETHER IN AN ACTION OF CONTRACT, TORT OR OTHERWISE, ARISING FROM,
* OUT OF OR IN CONNECTION WITH THE LIBRARY OR THE USE OR OTHER DEALINGS IN THE
* LIBRARY.

*For questions about the library, contact Lieze Schindler, 17528283@sun.ac.za

*$Ports 			  a b clk q	
.subckt LSmitll_AND2T a b clk q
.model jjmit jj(rtype=1, vg=2.8mV, cap=0.07pF, r0=160, rn=16, icrit=0.1mA)
.param B0=1.0
.param Ic0=0.0001
.param IcRs=100u*6.859904418
.param B0Rs=IcRs/Ic0*B0
.param Rsheet=2 
.param Lsheet=1.13e-12 
.param B01=1.31899
.param B01rx2=0.88063
.param B01rx3=0.90139
.param B01tx1=2.26625 
.param B03=1.13403
.param B05=1.52701
.param B07=1.25725
.param B08=1.56701
.param B09=2.03545 
.param B10=1.75934
.param B14=1.50181
.param IB01=0.000113269
.param IB01rx2=0.000131447
.param IB01rx3=0.000127540
.param IB01tx1=0.000213665
.param IB03=0.000062676
.param IB07=0.000179300
.param L01=2.57966e-12 
.param L01rx2=1.53695e-12 
.param L01rx3=1.77460e-12 
.param L01tx1=1.53695e-12 
.param L02tx1=2.74282e-12 
.param L03=1.93254e-12 
.param L05=1.14641e-12 
.param L07=1.99319e-12 
.param L08=3.9e-14 
.param L09=2.92475e-12 
.param L13=2.23040e-12 
.param L15=6.10490e-12 
.param L17=1.94280e-12 
.param L19=2.03734e-13 
.param L20=3.99011e-13 
.param L21=1.29090e-13 
.param L23=1e-14 
.param LRB01=(RB01/Rsheet)*Lsheet
.param LRB01rx2=(RB01rx2/Rsheet)*Lsheet
.param LRB01rx3=(RB01rx3/Rsheet)*Lsheet
.param LRB01tx1=(RB01tx1/Rsheet)*Lsheet
.param LRB03=(RB03/Rsheet)*Lsheet
.param LRB05=(RB05/Rsheet)*Lsheet
.param LRB07=(RB07/Rsheet)*Lsheet
.param LRB08=(RB08/Rsheet)*Lsheet
.param LRB09=(RB09/Rsheet)*Lsheet
.param LRB10=(RB10/Rsheet)*Lsheet
.param LRB14=(RB14/Rsheet)*Lsheet
.param RB01=B0Rs/B01
.param RB01rx2=B0Rs/B01rx2
.param RB01rx3=B0Rs/B01rx3
.param RB01tx1=B0Rs/B01tx1
.param RB03=B0Rs/B03
.param RB05=B0Rs/B05
.param RB07=B0Rs/B07
.param RB08=B0Rs/B08
.param RB09=B0Rs/B09
.param RB10=B0Rs/B10
.param RB14=B0Rs/B14
B01 7 32 jjmit area=B01
B01RX1 5 28 jjmit area=B01rx2
B01RX2 20 60 jjmit area=B01rx2
B01RX3 13 43 jjmit area=B01rx3
B01TX1 18 53 jjmit area=B01tx1
B02 22 64 jjmit area=B01
B03 8 10 jjmit area=B03
B04 23 19 jjmit area=B03
B05 9 11 jjmit area=B05
B06 24 11 jjmit area=B05
B07 16 49 jjmit area=B07
B08 15 47 jjmit area=B08
B09 17 51 jjmit area=B09
B10 6 30 jjmit area=B10
B11 21 62 jjmit area=B10
B14 14 45 jjmit area=B14
IB01 0 26 pwl(0 0 5p IB01)
IB01RX1 0 25 pwl(0 0 5p IB01rx2)
IB01RX2 0 55 pwl(0 0 5p IB01rx2)
IB01RX3 0 36 pwl(0 0 5p IB01rx3)
IB01TX1 0 39 pwl(0 0 5p IB01tx1)
IB02 0 56 pwl(0 0 5p IB01)
IB03 0 38 pwl(0 0 5p IB03)
IB07 0 37 pwl(0 0 5p IB07)
L01 8 9 L01
L01RX1 a 5 L01rx2
L01RX2 b 20 L01rx2
L01RX3 clk 13 L01rx3
L01TX1 17 18 L01tx1
L02 23 24 L01
L02TX1 18 42 L02tx1
L03 6 27 L03
L04 21 59 L03
L05 10 12 L05
L06 12 19 L05
L07 40 15 L07
L08 16 41 L08
L09 41 17 L09
L13 5 6 L13
L14 20 21 L13
L15 27 7 L15
L16 59 22 L15
L17 13 14 L17
L19 14 40 L19
L20 11 16 L20
L21 7 8 L21
L22 22 23 L21
L23 15 12 L23
LP01 32 0 2.55e-13
LP01RX1 28 0 3.4e-13
LP01RX2 60 0 3.4e-13
LP01RX3 43 0 3.4e-13
LP01TX1 53 0 5e-14
LP02 64 0 2.55e-13
LP07 49 0 2.99e-13
LP08 47 0 2.11e-13
LP09 51 0 1.74e-13
LP10 30 0 2.21e-13
LP11 62 0 2.21e-13
LP14 45 0 1.87e-13
LPR01RX1 25 5 2e-13
LPR01RX2 55 20 2e-13
LPR01RX3 36 13 2e-13
LPR01TX1 39 18 2e-13
LPR1 26 27 1.3e-14
LPR2 56 59 1.3e-14
LPR3 38 41 1.901e-12
LPR4 37 40 8.5e-13
LRB01 33 0 LRB01
LRB01RX1 29 0 LRB01rx2
LRB01RX2 61 0 LRB01rx2
LRB01RX3 44 0 LRB01rx3
LRB01TX1 54 0 LRB01tx1
LRB02 65 0 LRB01
LRB03 34 10 LRB03
LRB04 19 57 LRB03
LRB05 35 11 LRB05
LRB06 11 58 LRB05
LRB07 50 0 LRB07
LRB08 48 0 LRB08
LRB09 52 0 LRB09
LRB10 31 0 LRB10
LRB11 63 0 LRB10
LRB14 46 0 LRB14
RB01 7 33 RB01
RB01RX1 5 29 RB01rx2
RB01RX2 20 61 RB01rx2
RB01RX3 13 44 RB01rx3
RB01TX1 18 54 RB01tx1
RB02 22 65 RB01
RB03 8 34 RB03
RB04 57 23 RB03
RB05 9 35 RB05
RB06 58 24 RB05
RB07 16 50 RB07
RB08 15 48 RB08
RB09 17 52 RB09
RB10 6 31 RB10
RB11 21 63 RB10
RB14 14 46 RB14
RINSTX1 42 q 1.36
.ends
* Author: L. Schindler
* Version: 1.5.1
* Last modification date: 18 June 2020
* Last modification by: L. Schindler

* Copyright (c) 2018-2020 Lieze Schindler, Stellenbosch University

* Permission is hereby granted, free of charge, to any person obtaining a copy
* of this cell library and associated documentation files (the "Library"), to deal
* in the Library without restriction, including without limitation the rights
* to use, copy, modify, merge, publish, distribute, sublicense, and/or sell
* copies of the Library, and to permit persons to whom the Library is
* furnished to do so, subject to the following conditions:

* The above copyright notice and this permission notice shall be included in all
* copies or substantial portions of the Library.

* THE LIBRARY IS PROVIDED "AS IS", WITHOUT WARRANTY OF ANY KIND, EXPRESS OR
* IMPLIED, INCLUDING BUT NOT LIMITED TO THE WARRANTIES OF MERCHANTABILITY,
* FITNESS FOR A PARTICULAR PURPOSE AND NONINFRINGEMENT. IN NO EVENT SHALL THE
* AUTHORS OR COPYRIGHT HOLDERS BE LIABLE FOR ANY CLAIM, DAMAGES OR OTHER
* LIABILITY, WHETHER IN AN ACTION OF CONTRACT, TORT OR OTHERWISE, ARISING FROM,
* OUT OF OR IN CONNECTION WITH THE LIBRARY OR THE USE OR OTHER DEALINGS IN THE
* LIBRARY.

*For questions about the library, contact Lieze Schindler, 17528283@sun.ac.za

*             in out
*$Ports  				a  q
.subckt LSmitll_bufft  a  q
.model jjmit jj(rtype=1, vg=2.8mV, cap=0.07pF, r0=160, rn=16, icrit=0.1mA)
B1 2 3 jjmit area=2.0
B2 6 7 jjmit area=2.5
B3 11 12 jjmit area=2.5
IB1 0 5 pwl(0 0 5p 160u)
IB2 0 10 pwl(0 0 5p 350u)
L1 a 2 2p
L2 2 6 5.2p   
L3 6 9 2.07p
L4 9 11 2.07p
L5 11 14 2p
RD 14 q 1.36
LP1 3 0 0.2p
LP2 7 0 0.2p
LP3 12 0 0.2p
RB1 2 4 3.43
RB2 6 8 2.744
RB3 11 13 2.744
LRB1 4 0 1.94p
LRB2 8 0 1.55p
LRB3 13 0 1.55p
LB1 2 5 1p
LB2 9 10 1p
.ends
* Author: L. Schindler
* Version: 1.5.1
* Last modification date: 18 June 2020
* Last modification by: L. Schindler

* Copyright (c) 2018-2020 Lieze Schindler, Stellenbosch University

* Permission is hereby granted, free of charge, to any person obtaining a copy
* of this cell library and associated documentation files (the "Library"), to deal
* in the Library without restriction, including without limitation the rights
* to use, copy, modify, merge, publish, distribute, sublicense, and/or sell
* copies of the Library, and to permit persons to whom the Library is
* furnished to do so, subject to the following conditions:

* The above copyright notice and this permission notice shall be included in all
* copies or substantial portions of the Library.

* THE LIBRARY IS PROVIDED "AS IS", WITHOUT WARRANTY OF ANY KIND, EXPRESS OR
* IMPLIED, INCLUDING BUT NOT LIMITED TO THE WARRANTIES OF MERCHANTABILITY,
* FITNESS FOR A PARTICULAR PURPOSE AND NONINFRINGEMENT. IN NO EVENT SHALL THE
* AUTHORS OR COPYRIGHT HOLDERS BE LIABLE FOR ANY CLAIM, DAMAGES OR OTHER
* LIABILITY, WHETHER IN AN ACTION OF CONTRACT, TORT OR OTHERWISE, ARISING FROM,
* OUT OF OR IN CONNECTION WITH THE LIBRARY OR THE USE OR OTHER DEALINGS IN THE
* LIBRARY.

*For questions about the library, contact Lieze Schindler, 17528283@sun.ac.za

*$Ports 			a b clk q
.subckt LSmitll_OR2T a b clk q
.model jjmit jj(rtype=1, vg=2.8mV, cap=0.07pF, r0=160, rn=16, icrit=0.1mA)
.param B0=1
.param Ic0=0.0001
.param IcRs=100u*6.859904418
.param B0Rs=IcRs/Ic0*B0
.param Rsheet=2 
.param Lsheet=1.13e-12 
.param B01=1.9518 
.param B01rx2=1.1720 
.param B01rx3=0.8056 
.param B01tx1=1.9004 
.param B02=1.3074 
.param B02rx3=0.7521 
.param B03rx3=0.6339 
.param B05=1.7221 
.param B08=1.3953 
.param B09=1.6170 
.param B10=2.2048 
.param IB01=0.0003277005 
.param IB01rx2=0.0001412752 
.param IB01rx3=9.8325e-05 
.param IB01tx1=0.0001765029 
.param IB02=8.1358e-05 
.param IB04=8.0964e-05 
.param L01=2.6809e-12 
.param L01rx2=2.0307e-12 
.param L01rx3=1.4136e-12 
.param L01tx1=4.2904e-12 
.param L02=1.3486e-12 
.param L02rx2=2.0822e-12 
.param L02rx3=3.3652e-12 
.param L02tx1=2.7779e-12 
.param L03rx3=4.0267e-12 
.param L05=3.7250e-13 
.param L06=1.8890e-12 
.param L07=2.1922e-13 
.param L08=5.4916e-12 
.param L09=1.5727e-12 
.param L13=2.0776e-12 
.param L14=8.8496e-13 
.param LRB01=(RB01/Rsheet)*Lsheet
.param LRB01rx1=(RB01rx1/Rsheet)*Lsheet
.param LRB01rx2=(RB01rx2/Rsheet)*Lsheet
.param LRB01rx3=(RB01rx3/Rsheet)*Lsheet
.param LRB01tx1=(RB01tx1/Rsheet)*Lsheet
.param LRB02=(RB02/Rsheet)*Lsheet
.param LRB02rx3=(RB02rx3/Rsheet)*Lsheet
.param LRB03=(RB03/Rsheet)*Lsheet
.param LRB03rx3=(RB03rx3/Rsheet)*Lsheet
.param LRB04=(RB04/Rsheet)*Lsheet
.param LRB05=(RB05/Rsheet)*Lsheet
.param LRB08=(RB08/Rsheet)*Lsheet
.param LRB09=(RB09/Rsheet)*Lsheet
.param LRB10=(RB10/Rsheet)*Lsheet
.param RB01=B0Rs/B01
.param RB01rx1=B0Rs/B01rx2
.param RB01rx2=B0Rs/B01rx2
.param RB01rx3=B0Rs/B01rx3
.param RB01tx1=B0Rs/B01tx1
.param RB02=B0Rs/B02
.param RB02rx3=B0Rs/B02rx3
.param RB03=B0Rs/B01
.param RB03rx3=B0Rs/B03rx3
.param RB04=B0Rs/B02
.param RB05=B0Rs/B05
.param RB08=B0Rs/B08
.param RB09=B0Rs/B09
.param RB10=B0Rs/B10
B01 7 36 jjmit area=B01
B01rx1 9 34 jjmit area=B01rx2
B01rx2 19 54 jjmit area=B01rx2
B01rx3 6 23 jjmit area=B01rx3
B01tx1 16 50 jjmit area=B01tx1
B02 7 8 jjmit area=B02
B02rx3 5 20 jjmit area=B02rx3
B03 17 56 jjmit area=B01
B03rx3 5 13 jjmit area=B03rx3
B04 17 18 jjmit area=B02
B05 11 44 jjmit area=B05
B08 14 46 jjmit area=B08
B09 15 48 jjmit area=B09
B10 10 11 jjmit area=B10
IB01 0 28 pwl(0 0 5p IB01)
IB01rx1 0 26 pwl(0 0 5p IB01rx2)
IB01rx2 0 42 pwl(0 0 5p IB01rx2)
IB01rx3 0 25 pwl(0 0 5p IB01rx3)
IB01tx1 0 32 pwl(0 0 5p IB01tx1)
IB02 0 29 pwl(0 0 5p IB02)
IB04 0 31 pwl(0 0 5p IB04)
L01 27 7 L01
L01rx1 a 9 L01rx2
L01rx2 b 19 L01rx2
L01rx3 clk 6 L01rx3
L01tx1 15 16 L01tx1
L02 8 12 L02
L02rx1 9 27 L02rx2
L02rx2 19 52 L02rx2
L02rx3 6 22 L02rx3
L02tx1 16 43 L02tx1
L03 52 17 L01
L03rx3 22 5 L03rx3
L04 12 18 L02
L05 12 38 L05
L06 38 10 L06
L07 11 39 L07
L08 39 13 L08
L09 13 14 L09
L13 14 40 L13
L14 40 15 L14
LP01 36 0 0.2p
LP01rx1 34 0 3.4e-13
LP01rx2 54 0 3.4e-13
LP01rx3 23 0 3.4e-13
LP01tx1 50 0 5e-14
LP02rx3 20 0 3.4e-13
LP03 56 0 2e-13
LP05 44 0 0.2p
LP08 46 0 1.17e-13
LP09 48 0 1.51e-13
LPIB01 28 38 0.2p
LPIB02 29 39 0.2p
LPIB04 31 40 0.2p
LPR01rx1 26 27 0.2p
LPR01rx2 42 52 0.2p
LPR01rx3 22 25 2e-13
LPR01tx1 32 16 0.2p
LRB01 37 0 LRB01
LRB01rx1 35 0 LRB01rx1
LRB01rx2 55 0 LRB01rx2
LRB01rx3 24 0 LRB01rx3
LRB01tx1 51 0 LRB01tx1
LRB02 33 8 LRB02
LRB02rx3 21 0 LRB02rx3
LRB03 57 0 LRB03
LRB03rx3 30 13 LRB03rx3
LRB04 53 18 LRB04
LRB05 45 0 LRB05
LRB08 47 0 LRB08
LRB09 49 0 LRB09
LRB10 41 11 LRB10
RB01 7 37 RB01
RB01rx1 9 35 RB01rx1
RB01rx2 19 55 RB01rx2
RB01rx3 6 24 RB01rx3
RB01tx1 16 51 RB01tx1
RB02 7 33 RB02
RB02rx3 5 21 RB02rx3
RB03 17 57 RB03
RB03rx3 5 30 RB03rx3
RB04 17 53 RB04
RB05 11 45 RB05
RB08 14 47 RB08
RB09 15 49 RB09
RB10 10 41 RB10
RINStx1 43 q 1.36
.ends
* Adapted from Fluxonics SDQDC_v5
* Author: L. Schindler
* Version: 1.5.1
* Last modification date: 18 June 2020
* Last modification by: L. Schindler

* Copyright (c) 2018-2020 Lieze Schindler, Stellenbosch University

* Permission is hereby granted, free of charge, to any person obtaining a copy
* of this cell library and associated documentation files (the "Library"), to deal